data_CAU-10-NH2

_audit_creation_method RASPA-1.0
_audit_creation_date 2025-7-10
_audit_author_name ''

_citation_id                 1
_citation_year               10.31635/ccschem.024.202404102

_cell_length_a    21.4221
_cell_length_b    21.4221
_cell_length_c    10.7351
_cell_angle_alpha 90
_cell_angle_beta  90
_cell_angle_gamma 90
_cell_volume      4926.41

_symmetry_cell_setting          tetragonal
_symmetry_space_group_name_Hall '-I 4bd 2'
_symmetry_space_group_name_H-M  'I 41/a m d'
_symmetry_Int_Tables_number     141

loop_
_symmetry_equiv_pos_as_xyz
 'x,y,z'
 '-x+1/2,-y,z+1/2'
 '-y+1/4,x+3/4,z+1/4'
 'y+1/4,-x+1/4,z+3/4'
 '-x+1/2,y,-z+1/2'
 'x,-y,-z'
 'y+1/4,x+3/4,-z+1/4'
 '-y+1/4,-x+1/4,-z+3/4'
 '-x,-y,-z'
 'x+1/2,y,-z+1/2'
 'y+3/4,-x+1/4,-z+3/4'
 '-y+3/4,x+3/4,-z+1/4'
 'x+1/2,-y,z+1/2'
 '-x,y,z'
 '-y+3/4,-x+1/4,z+3/4'
 'y+3/4,x+3/4,z+1/4'
 'x+1/2,y+1/2,z+1/2'
 '-x,-y+1/2,z'
 '-y+3/4,x+1/4,z+3/4'
 'y+3/4,-x+3/4,z+1/4'
 '-x,y+1/2,-z'
 'x+1/2,-y+1/2,-z+1/2'
 'y+3/4,x+1/4,-z+3/4'
 '-y+3/4,-x+3/4,-z+1/4'
 '-x+1/2,-y+1/2,-z+1/2'
 'x,y+1/2,-z'
 'y+1/4,-x+3/4,-z+1/4'
 '-y+1/4,x+1/4,-z+3/4'
 'x,-y+1/2,z'
 '-x+1/2,y+1/2,z+1/2'
 '-y+1/4,-x+3/4,z+1/4'
 'y+1/4,x+1/4,z+3/4'

loop_
_atom_site_label
_atom_site_type_symbol
_atom_site_fract_x
_atom_site_fract_y
_atom_site_fract_z
_atom_site_charge
Al1      Al     0.750000000000     0.435010000000     0.750000000000     6.35663
O2       O      0.837770000000     0.433510000000     0.733500000000    -1.55581
O1       O      0.755160000000     0.494840000000     0.875000000000    -2.2402
O3       O      0.744100000000     0.368980000000     0.631700000000    -1.50286
C1       C      0.712460000000     0.366630000000     0.532500000000     1.19035
C3       C      0.716200000000     0.250000000000     0.531900000000     0.41424
C2       C      0.703600000000     0.305720000000     0.470300000000    -0.492627
C4       C      0.681100000000     0.305600000000     0.349400000000     0.221258
C5       C      0.671000000000     0.250000000000     0.283600000000    -0.106525
N1       N      0.648900000000     0.250000000000     0.158300000000    -0.139004
H1       H      0.628170000000     0.288480000000     0.092210000000     0.0591188
H3       H      0.733000000000     0.250000000000     0.614000000000    -0.0717057
H4       H      0.675000000000     0.347000000000     0.302000000000    -0.0248966


