data_CAU-10-H

_audit_creation_method RASPA-1.0
_audit_creation_date 2025-7-10
_audit_author_name ''

_citation_id                 1
_citation_year               10.31635/ccschem.024.202404102

_cell_length_a    21.2941
_cell_length_b    21.2941
_cell_length_c    10.6928
_cell_angle_alpha 90
_cell_angle_beta  90
_cell_angle_gamma 90
_cell_volume      4848.53

_symmetry_cell_setting          tetragonal
_symmetry_space_group_name_Hall 'I 4bw -2'
_symmetry_space_group_name_H-M  'I 41 m d'
_symmetry_Int_Tables_number     109

loop_
_symmetry_equiv_pos_as_xyz
 'x,y,z'
 '-x+1/2,-y+1/2,z+1/2'
 '-y,x+1/2,z+1/4'
 'y+1/2,-x,z+3/4'
 'x,-y,z'
 '-x+1/2,y+1/2,z+1/2'
 '-y,-x+1/2,z+1/4'
 'y+1/2,x,z+3/4'
 'x+1/2,y+1/2,z+1/2'
 '-x,-y,z'
 '-y+1/2,x,z+3/4'
 'y,-x+1/2,z+1/4'
 'x+1/2,-y+1/2,z+1/2'
 '-x,y,z'
 '-y+1/2,-x,z+3/4'
 'y,x+1/2,z+1/4'

loop_
_atom_site_label
_atom_site_type_symbol
_atom_site_fract_x
_atom_site_fract_y
_atom_site_fract_z
_atom_site_charge
Al01     Al     0.813740000000     0.754080000000     0.669800000000     5.95223
O002     O      0.759410000000     0.750700000000     0.536300000000    -2.1515
O003     O      0.831200000000     0.666500000000     0.655800000000    -1.42362
O006     O      0.803700000000     0.841700000000     0.693400000000    -1.44496
O1       O      0.881400000000     0.771700000000     0.550900000000    -1.37511
O2       O      0.878400000000     0.760600000000     0.793800000000    -1.4509
C2       C      0.885000000000     0.732800000000     0.894500000000     1.18366
C4       C      0.882000000000     0.808200000000     0.461700000000     1.09098
C1       C      0.942900000000     0.832100000000     0.411900000000    -0.438815
C5       C      0.000000000000     0.744600000000     0.904500000000     0.578451
C7       C      0.000000000000     0.722900000000     0.163100000000    -0.581121
H7       H      0.000000000000     0.720595000000     0.251797000000     0.227537
C3       C      0.000000000000     0.808900000000     0.465900000000     0.279161
C6       C      0.943700000000     0.735400000000     0.966000000000    -0.652509
C8       C      0.944700000000     0.880200000000     0.326900000000     0.286285
H8       H      0.900000000000     0.897000000000     0.295000000000    -0.0302536
C9       C      0.945700000000     0.724700000000     0.096200000000     0.519646
H9       H      0.907190000000     0.718466000000     0.139299000000    -0.138107
C13      C      0.000000000000     0.902100000000     0.286500000000    -0.329172
H13      H      0.000000000000     0.936000000000     0.221000000000     0.119328
H5       H      0.000000000000     0.752000000000     0.819000000000    -0.147379


