data_MIL-160

_audit_creation_method RASPA-1.0
_audit_creation_date 2025-7-10
_audit_author_name ''

loop_
_citation_id
_citation_year
1
10.1002/ejic.201800323
2
10.1002/ejic.201800323

_cell_length_a    21.0738
_cell_length_b    21.0738
_cell_length_c    10.6469
_cell_angle_alpha 90
_cell_angle_beta  90
_cell_angle_gamma 90
_cell_volume      4728.35

_symmetry_cell_setting          tetragonal
_symmetry_space_group_name_Hall '-I 4bd 2'
_symmetry_space_group_name_H-M  'I 41/a m d'
_symmetry_Int_Tables_number     141

loop_
_symmetry_equiv_pos_as_xyz
 'x,y,z'
 '-x+1/2,-y,z+1/2'
 '-y+1/4,x+3/4,z+1/4'
 'y+1/4,-x+1/4,z+3/4'
 '-x+1/2,y,-z+1/2'
 'x,-y,-z'
 'y+1/4,x+3/4,-z+1/4'
 '-y+1/4,-x+1/4,-z+3/4'
 '-x,-y,-z'
 'x+1/2,y,-z+1/2'
 'y+3/4,-x+1/4,-z+3/4'
 '-y+3/4,x+3/4,-z+1/4'
 'x+1/2,-y,z+1/2'
 '-x,y,z'
 '-y+3/4,-x+1/4,z+3/4'
 'y+3/4,x+3/4,z+1/4'
 'x+1/2,y+1/2,z+1/2'
 '-x,-y+1/2,z'
 '-y+3/4,x+1/4,z+3/4'
 'y+3/4,-x+3/4,z+1/4'
 '-x,y+1/2,-z'
 'x+1/2,-y+1/2,-z+1/2'
 'y+3/4,x+1/4,-z+3/4'
 '-y+3/4,-x+3/4,-z+1/4'
 '-x+1/2,-y+1/2,-z+1/2'
 'x,y+1/2,-z'
 'y+1/4,-x+3/4,-z+1/4'
 '-y+1/4,x+1/4,-z+3/4'
 'x,-y+1/2,z'
 '-x+1/2,y+1/2,z+1/2'
 '-y+1/4,-x+3/4,z+1/4'
 'y+1/4,x+1/4,z+3/4'

loop_
_atom_site_label
_atom_site_type_symbol
_atom_site_fract_x
_atom_site_fract_y
_atom_site_fract_z
_atom_site_charge
Al1      Al     0.315110000000     0.000000000000     0.000000000000     6.07626
O1       O      0.255300000000     0.005300000000     0.125000000000    -2.23536
O2       O      0.381330000000     0.005230000000     0.114970000000    -1.48741
O3       O      0.342220000000     0.065770000000     0.275100000000    -1.33183
C1       C      0.386380000000     0.037790000000     0.211700000000     0.98682
C2       C      0.448040000000     0.053990000000     0.282300000000    -0.138322
C3       C      0.465540000000     0.083560000000     0.388300000000     0.0572917
O4       O      0.500000000000     0.034750000000     0.212500000000    -0.0897588


