data_MIP-202

_audit_creation_method RASPA-1.0
_audit_creation_date 2025-7-10
_audit_author_name ''

_citation_id                 1
_citation_year               10.1038/s41467-018-07414-4

_cell_length_a    17.826
_cell_length_b    17.826
_cell_length_c    17.826
_cell_angle_alpha 90
_cell_angle_beta  90
_cell_angle_gamma 90
_cell_volume      5664.5

_symmetry_cell_setting          cubic
_symmetry_space_group_name_Hall '-P 2ab 2bc 3'
_symmetry_space_group_name_H-M  'P n -3'
_symmetry_Int_Tables_number     201

loop_
_symmetry_equiv_pos_as_xyz
 'x,y,z'
 '-x+1/2,-y+1/2,z'
 '-x+1/2,y,-z+1/2'
 'x,-y+1/2,-z+1/2'
 'z,x,y'
 'z,-x+1/2,-y+1/2'
 '-z+1/2,-x+1/2,y'
 '-z+1/2,x,-y+1/2'
 'y,z,x'
 '-y+1/2,z,-x+1/2'
 'y,-z+1/2,-x+1/2'
 '-y+1/2,-z+1/2,x'
 '-x,-y,-z'
 'x+1/2,y+1/2,-z'
 'x+1/2,-y,z+1/2'
 '-x,y+1/2,z+1/2'
 '-z,-x,-y'
 '-z,x+1/2,y+1/2'
 'z+1/2,x+1/2,-y'
 'z+1/2,-x,y+1/2'
 '-y,-z,-x'
 'y+1/2,-z,x+1/2'
 '-y,z+1/2,x+1/2'
 'y+1/2,z+1/2,-x'

loop_
_atom_site_label
_atom_site_type_symbol
_atom_site_fract_x
_atom_site_fract_y
_atom_site_fract_z
_atom_site_charge
Zr1      Zr     0.489430000000     0.511180000000     0.638160000000     1.91669
O1       O      0.591700000000     0.513100000000     0.714200000000    -2.02728
O2       O      0.691200000000     0.493500000000     0.626600000000    -2.05855
O3       O      0.371500000000     0.520400000000     0.690900000000    -0.661179
O4       O      0.285700000000     0.521800000000     0.588800000000    -0.673803
O5       O      0.568600000000     0.568600000000     0.568600000000    -0.887064
O6       O      0.430800000000     0.581100000000     0.556300000000    -0.797719
C1       C      0.658010000000     0.505000000000     0.689220000000     4.10862
C2       C      0.708000000000     0.504500000000     0.759980000000    -15.0269
H2A      H      0.696521000000     0.549240000000     0.790827000000     13.9664
H2B      H      0.696387000000     0.459426000000     0.790262000000     15.176
N1       N      0.678000000000     0.562600000000     0.816800000000    -14.5148
H1A      H      0.699977000000     0.554902000000     0.862204000000     2.99895
H1B      H      0.627424000000     0.557508000000     0.821232000000     3.37377
H1C      H      0.688988000000     0.609689000000     0.800342000000     1.45371
N2       N      0.679500000000     0.445700000000     0.816700000000    -16.3529
H2C      H      0.682443000000     0.399156000000     0.795824000000     2.04746
H2D      H      0.630978000000     0.455842000000     0.828798000000     4.02182
H2E      H      0.708288000000     0.447290000000     0.858788000000     3.53685
C3       C      0.308830000000     0.520200000000     0.656480000000     0.654504
C4       C      0.239480000000     0.514700000000     0.708150000000    -1.2669
H4A      H      0.205759000000     0.557655000000     0.697900000000     0.943521
H4B      H      0.211707000000     0.468097000000     0.696404000000     1.26163
N3       N      0.174300000000     0.561100000000     0.675300000000    -0.921146
H3C      H      0.187777000000     0.610355000000     0.673399000000    -0.0514722
H3D      H      0.133094000000     0.555917000000     0.704953000000     0.0385628
H3E      H      0.163668000000     0.544565000000     0.628234000000     0.121346
N4       N      0.184500000000     0.456100000000     0.675400000000    -1.37207
H4C      H      0.174295000000     0.467653000000     0.626778000000     0.154612
H4D      H      0.141198000000     0.456461000000     0.702466000000     0.265744
H4E      H      0.205688000000     0.409724000000     0.677848000000    -0.0197997


