data_MOF-808

_audit_creation_method RASPA-1.0
_audit_creation_date 2025-7-10
_audit_author_name ''

_citation_id                 1
_citation_year               10.1021/ja500330a

_cell_length_a    35.0764
_cell_length_b    35.0764
_cell_length_c    35.0764
_cell_angle_alpha 90
_cell_angle_beta  90
_cell_angle_gamma 90
_cell_volume      43156.4

_symmetry_cell_setting          cubic
_symmetry_space_group_name_Hall '-F 4vw 2vw 3'
_symmetry_space_group_name_H-M  'F d -3 m'
_symmetry_Int_Tables_number     227

loop_
_symmetry_equiv_pos_as_xyz
 'x,y,z'
 '-x+3/4,-y+1/4,z+1/2'
 '-x+1/4,y+1/2,-z+3/4'
 'x+1/2,-y+3/4,-z+1/4'
 'z,x,y'
 'z+1/2,-x+3/4,-y+1/4'
 '-z+3/4,-x+1/4,y+1/2'
 '-z+1/4,x+1/2,-y+3/4'
 'y,z,x'
 '-y+1/4,z+1/2,-x+3/4'
 'y+1/2,-z+3/4,-x+1/4'
 '-y+3/4,-z+1/4,x+1/2'
 'y+3/4,x+1/4,-z+1/2'
 '-y,-x,-z'
 'y+1/4,-x+1/2,z+3/4'
 '-y+1/2,x+3/4,z+1/4'
 'x+3/4,z+1/4,-y+1/2'
 '-x+1/2,z+3/4,y+1/4'
 '-x,-z,-y'
 'x+1/4,-z+1/2,y+3/4'
 'z+3/4,y+1/4,-x+1/2'
 'z+1/4,-y+1/2,x+3/4'
 '-z+1/2,y+3/4,x+1/4'
 '-z,-y,-x'
 '-x,-y,-z'
 'x+1/4,y+3/4,-z+1/2'
 'x+3/4,-y+1/2,z+1/4'
 '-x+1/2,y+1/4,z+3/4'
 '-z,-x,-y'
 '-z+1/2,x+1/4,y+3/4'
 'z+1/4,x+3/4,-y+1/2'
 'z+3/4,-x+1/2,y+1/4'
 '-y,-z,-x'
 'y+3/4,-z+1/2,x+1/4'
 '-y+1/2,z+1/4,x+3/4'
 'y+1/4,z+3/4,-x+1/2'
 '-y+1/4,-x+3/4,z+1/2'
 'y,x,z'
 '-y+3/4,x+1/2,-z+1/4'
 'y+1/2,-x+1/4,-z+3/4'
 '-x+1/4,-z+3/4,y+1/2'
 'x+1/2,-z+1/4,-y+3/4'
 'x,z,y'
 '-x+3/4,z+1/2,-y+1/4'
 '-z+1/4,-y+3/4,x+1/2'
 '-z+3/4,y+1/2,-x+1/4'
 'z+1/2,-y+1/4,-x+3/4'
 'z,y,x'
 'x,y+1/2,z+1/2'
 '-x+3/4,-y+3/4,z'
 '-x+1/4,y,-z+1/4'
 'x+1/2,-y+1/4,-z+3/4'
 'z,x+1/2,y+1/2'
 'z+1/2,-x+1/4,-y+3/4'
 '-z+3/4,-x+3/4,y'
 '-z+1/4,x,-y+1/4'
 'y,z+1/2,x+1/2'
 '-y+1/4,z,-x+1/4'
 'y+1/2,-z+1/4,-x+3/4'
 '-y+3/4,-z+3/4,x'
 'y+3/4,x+3/4,-z'
 '-y,-x+1/2,-z+1/2'
 'y+1/4,-x,z+1/4'
 '-y+1/2,x+1/4,z+3/4'
 'x+3/4,z+3/4,-y'
 '-x+1/2,z+1/4,y+3/4'
 '-x,-z+1/2,-y+1/2'
 'x+1/4,-z,y+1/4'
 'z+3/4,y+3/4,-x'
 'z+1/4,-y,x+1/4'
 '-z+1/2,y+1/4,x+3/4'
 '-z,-y+1/2,-x+1/2'
 '-x,-y+1/2,-z+1/2'
 'x+1/4,y+1/4,-z'
 'x+3/4,-y,z+3/4'
 '-x+1/2,y+3/4,z+1/4'
 '-z,-x+1/2,-y+1/2'
 '-z+1/2,x+3/4,y+1/4'
 'z+1/4,x+1/4,-y'
 'z+3/4,-x,y+3/4'
 '-y,-z+1/2,-x+1/2'
 'y+3/4,-z,x+3/4'
 '-y+1/2,z+3/4,x+1/4'
 'y+1/4,z+1/4,-x'
 '-y+1/4,-x+1/4,z'
 'y,x+1/2,z+1/2'
 '-y+3/4,x,-z+3/4'
 'y+1/2,-x+3/4,-z+1/4'
 '-x+1/4,-z+1/4,y'
 'x+1/2,-z+3/4,-y+1/4'
 'x,z+1/2,y+1/2'
 '-x+3/4,z,-y+3/4'
 '-z+1/4,-y+1/4,x'
 '-z+3/4,y,-x+3/4'
 'z+1/2,-y+3/4,-x+1/4'
 'z,y+1/2,x+1/2'
 'x+1/2,y,z+1/2'
 '-x+1/4,-y+1/4,z'
 '-x+3/4,y+1/2,-z+1/4'
 'x,-y+3/4,-z+3/4'
 'z+1/2,x,y+1/2'
 'z,-x+3/4,-y+3/4'
 '-z+1/4,-x+1/4,y'
 '-z+3/4,x+1/2,-y+1/4'
 'y+1/2,z,x+1/2'
 '-y+3/4,z+1/2,-x+1/4'
 'y,-z+3/4,-x+3/4'
 '-y+1/4,-z+1/4,x'
 'y+1/4,x+1/4,-z'
 '-y+1/2,-x,-z+1/2'
 'y+3/4,-x+1/2,z+1/4'
 '-y,x+3/4,z+3/4'
 'x+1/4,z+1/4,-y'
 '-x,z+3/4,y+3/4'
 '-x+1/2,-z,-y+1/2'
 'x+3/4,-z+1/2,y+1/4'
 'z+1/4,y+1/4,-x'
 'z+3/4,-y+1/2,x+1/4'
 '-z,y+3/4,x+3/4'
 '-z+1/2,-y,-x+1/2'
 '-x+1/2,-y,-z+1/2'
 'x+3/4,y+3/4,-z'
 'x+1/4,-y+1/2,z+3/4'
 '-x,y+1/4,z+1/4'
 '-z+1/2,-x,-y+1/2'
 '-z,x+1/4,y+1/4'
 'z+3/4,x+3/4,-y'
 'z+1/4,-x+1/2,y+3/4'
 '-y+1/2,-z,-x+1/2'
 'y+1/4,-z+1/2,x+3/4'
 '-y,z+1/4,x+1/4'
 'y+3/4,z+3/4,-x'
 '-y+3/4,-x+3/4,z'
 'y+1/2,x,z+1/2'
 '-y+1/4,x+1/2,-z+3/4'
 'y,-x+1/4,-z+1/4'
 '-x+3/4,-z+3/4,y'
 'x,-z+1/4,-y+1/4'
 'x+1/2,z,y+1/2'
 '-x+1/4,z+1/2,-y+3/4'
 '-z+3/4,-y+3/4,x'
 '-z+1/4,y+1/2,-x+3/4'
 'z,-y+1/4,-x+1/4'
 'z+1/2,y,x+1/2'
 'x+1/2,y+1/2,z'
 '-x+1/4,-y+3/4,z+1/2'
 '-x+3/4,y,-z+3/4'
 'x,-y+1/4,-z+1/4'
 'z+1/2,x+1/2,y'
 'z,-x+1/4,-y+1/4'
 '-z+1/4,-x+3/4,y+1/2'
 '-z+3/4,x,-y+3/4'
 'y+1/2,z+1/2,x'
 '-y+3/4,z,-x+3/4'
 'y,-z+1/4,-x+1/4'
 '-y+1/4,-z+3/4,x+1/2'
 'y+1/4,x+3/4,-z+1/2'
 '-y+1/2,-x+1/2,-z'
 'y+3/4,-x,z+3/4'
 '-y,x+1/4,z+1/4'
 'x+1/4,z+3/4,-y+1/2'
 '-x,z+1/4,y+1/4'
 '-x+1/2,-z+1/2,-y'
 'x+3/4,-z,y+3/4'
 'z+1/4,y+3/4,-x+1/2'
 'z+3/4,-y,x+3/4'
 '-z,y+1/4,x+1/4'
 '-z+1/2,-y+1/2,-x'
 '-x+1/2,-y+1/2,-z'
 'x+3/4,y+1/4,-z+1/2'
 'x+1/4,-y,z+1/4'
 '-x,y+3/4,z+3/4'
 '-z+1/2,-x+1/2,-y'
 '-z,x+3/4,y+3/4'
 'z+3/4,x+1/4,-y+1/2'
 'z+1/4,-x,y+1/4'
 '-y+1/2,-z+1/2,-x'
 'y+1/4,-z,x+1/4'
 '-y,z+3/4,x+3/4'
 'y+3/4,z+1/4,-x+1/2'
 '-y+3/4,-x+1/4,z+1/2'
 'y+1/2,x+1/2,z'
 '-y+1/4,x,-z+1/4'
 'y,-x+3/4,-z+3/4'
 '-x+3/4,-z+1/4,y+1/2'
 'x,-z+3/4,-y+3/4'
 'x+1/2,z+1/2,y'
 '-x+1/4,z,-y+1/4'
 '-z+3/4,-y+1/4,x+1/2'
 '-z+1/4,y,-x+1/4'
 'z,-y+3/4,-x+3/4'
 'z+1/2,y+1/2,x'

loop_
_atom_site_label
_atom_site_type_symbol
_atom_site_fract_x
_atom_site_fract_y
_atom_site_fract_z
_atom_site_charge
Zr1      Zr     0.797040000000     0.226610000000     0.452960000000     4.1375
O2       O      0.778130000000     0.278130000000     0.471870000000     1.396 
O1       O      0.798660000000     0.253400000000     0.395860000000    -0.840331
C1       C      0.781290000000     0.281290000000     0.381430000000     0.705474
C3       C      0.779380000000     0.328070000000     0.328070000000     0.303846
H3       H      0.757200000000     0.339100000000     0.339100000000    -0.0568463
C2       C      0.795640000000     0.295640000000     0.344340000000    -0.399502
O3       O      0.765480000000     0.184410000000     0.484520000000     6.84485
O4       O      0.780800000000     0.179100000000     0.413000000000    -0.0815355
C4       C      0.750000000000     0.159390000000     0.409390000000    -0.366773
O5       O      0.838200000000     0.338200000000     0.411800000000    -0.0617861
O0AA     O      0.789300000000     0.289300000000     0.460700000000    -1.69416
O2AA     O      0.875000000000     0.354400000000     0.375000000000    -0.0136376
O7       O      0.759950000000     0.197940000000     0.490050000000    -7.91737
O6       O      0.794900000000     0.181900000000     0.409000000000    -0.74111
C5       C      0.777300000000     0.179400000000     0.378100000000     0.100846


