data_MOF-303

_audit_creation_method RASPA-1.0
_audit_creation_date 2025-7-10
_audit_author_name ''

_citation_id                 1
_citation_year               10.1126/science.abj0890

_cell_length_a    12.0438
_cell_length_b    14.9649
_cell_length_c    14.0794
_cell_angle_alpha 90
_cell_angle_beta  101.929
_cell_angle_gamma 90
_cell_volume      2482.79

_symmetry_cell_setting          monoclinic
_symmetry_space_group_name_Hall '-P 2ybc'
_symmetry_space_group_name_H-M  'P 1 21/c 1'
_symmetry_Int_Tables_number     14

loop_
_symmetry_equiv_pos_as_xyz
 'x,y,z'
 '-x,y+1/2,-z+1/2'
 '-x,-y,-z'
 'x,-y+1/2,z+1/2'

loop_
_atom_site_label
_atom_site_type_symbol
_atom_site_fract_x
_atom_site_fract_y
_atom_site_fract_z
_atom_site_charge
Al2      Al     0.500000000000     0.500000000000     0.500000000000     7.12378
Al1      Al     0.735180000000     0.433550000000     0.435010000000     7.33745
Al3      Al     0.000000000000     0.500000000000     0.500000000000     7.90788
O4       O      0.623330000000     0.348890000000     0.381460000000    -1.74719
O2       O      0.650060000000     0.469520000000     0.523560000000    -3.20219
H2       H      0.688389000000     0.472432000000     0.587990000000     0.821543
O7       O      0.812440000000     0.388930000000     0.341210000000    -1.78183
O1       O      0.847110000000     0.515180000000     0.481260000000    -3.38934
H1       H      0.822662000000     0.571162000000     0.497043000000     0.876508
O5       O      0.331480000000     0.022610000000     0.155550000000    -1.7298
O9       O      0.808860000000     0.153910000000     0.027280000000    -1.71376
O3       O      0.459550000000     0.401220000000     0.412100000000    -1.69529
O6       O      0.482110000000     0.076780000000     0.104900000000    -1.69205
O10      O      0.991090000000     0.110970000000     0.061970000000    -1.8796
O8       O      0.990790000000     0.438720000000     0.380430000000    -1.86819
N4       N      0.045900000000     0.242800000000     0.194600000000    -0.0739392
H4       H      0.103683000000     0.215315000000     0.181526000000     0.0928186
N1       N      0.345600000000     0.261200000000     0.300000000000    -0.0763706
H1A      H      0.299873000000     0.293825000000     0.324598000000     0.0719839
N2       N      0.314100000000     0.190200000000     0.243100000000    -0.0304658
N3       N      0.051500000000     0.304800000000     0.262600000000    -0.0303491
C1       C      0.518100000000     0.347100000000     0.374300000000     1.29179
C6       C      0.913800000000     0.391400000000     0.332600000000     1.38126
C5       C      0.407200000000     0.080100000000     0.155200000000     1.27011
C3       C      0.501400000000     0.211300000000     0.260600000000     0.372096
H3       H      0.576221000000     0.204994000000     0.253979000000    -0.104147
C10      C      0.910400000000     0.159100000000     0.073500000000     1.33873
C8       C      0.869800000000     0.282100000000     0.188800000000     0.403145
H8       H      0.791156000000     0.286839000000     0.171919000000    -0.11134
C2       C      0.458300000000     0.274700000000     0.313800000000    -0.391986
C9       C      0.937800000000     0.228400000000     0.148600000000    -0.427145
C7       C      0.943700000000     0.328800000000     0.261200000000    -0.422273
C4       C      0.409400000000     0.158800000000     0.218900000000    -0.398853


