data_Al-Fum

_audit_creation_method RASPA-1.0
_audit_creation_date 2025-7-9
_audit_author_name ''

_citation_id                 1
_citation_year               10.1002/anie.201410459

_cell_length_a    6.8419
_cell_length_b    12.0877
_cell_length_c    14.207
_cell_angle_alpha 90
_cell_angle_beta  122.547
_cell_angle_gamma 90
_cell_volume      1980.86

_symmetry_cell_setting          monoclinic
_symmetry_space_group_name_Hall 'P 1'
_symmetry_space_group_name_H-M  'P 1'
_symmetry_Int_Tables_number     1

_symmetry_equiv_pos_as_xyz 'x,y,z'

loop_
_atom_site_label
_atom_site_type_symbol
_atom_site_fract_x
_atom_site_fract_y
_atom_site_fract_z
_atom_site_charge
Al1      Al     0.500000000000     0.500000000000     0.000000000000     0.0405749  
Al1      Al     0.500000000000     0.000000000000     0.250000000000     0.0405749  
Al1      Al     0.500000000000     0.500000000000     0.500000000000     0.0405749  
Al1      Al     0.500000000000     0.000000000000     0.750000000000     0.0405749  
Al2      Al     0.000000000000     0.500000000000     0.000000000000     0.0989652  
Al2      Al     0.000000000000     0.000000000000     0.250000000000     0.0989652  
Al2      Al     0.000000000000     0.500000000000     0.500000000000     0.0989652  
Al2      Al     0.000000000000     0.000000000000     0.750000000000     0.0989652  
O1       O      0.180120000000     0.517310000000     0.470075000000     0.344458   
O1       O      0.819880000000     0.017310000000     0.279925000000     0.344458   
O1       O      0.819880000000     0.482690000000     0.029925000000     0.344458   
O1       O      0.180120000000     0.982690000000     0.220075000000     0.344458   
O1       O      0.180120000000     0.517310000000     0.970075000000     0.344458   
O1       O      0.819880000000     0.017310000000     0.779925000000     0.344458   
O1       O      0.819880000000     0.482690000000     0.529925000000     0.344458   
O1       O      0.180120000000     0.982690000000     0.720075000000     0.344458   
O2       O      0.247050000000     0.400150000000     0.057955000000     5.8725     
O2       O      0.752950000000     0.900150000000     0.192045000000     5.8725     
O2       O      0.752950000000     0.599850000000     0.442045000000     5.8725     
O2       O      0.247050000000     0.099850000000     0.307955000000     5.8725     
O2       O      0.247050000000     0.400150000000     0.557955000000     5.8725     
O2       O      0.752950000000     0.900150000000     0.692045000000     5.8725     
O2       O      0.752950000000     0.599850000000     0.942045000000     5.8725     
O2       O      0.247050000000     0.099850000000     0.807955000000     5.8725     
O3       O      0.538440000000     0.368770000000     0.042190000000     5.23752    
O3       O      0.461560000000     0.868770000000     0.207810000000     5.23752    
O3       O      0.461560000000     0.631230000000     0.457810000000     5.23752    
O3       O      0.538440000000     0.131230000000     0.292190000000     5.23752    
O3       O      0.538440000000     0.368770000000     0.542190000000     5.23752    
O3       O      0.461560000000     0.868770000000     0.707810000000     5.23752    
O3       O      0.461560000000     0.631230000000     0.957810000000     5.23752    
O3       O      0.538440000000     0.131230000000     0.792190000000     5.23752    
O4       O      0.450600000000     0.093300000000     0.189835000000    -2.21419    
O4       O      0.549400000000     0.593300000000     0.060165000000    -2.21419    
O4       O      0.549400000000     0.906700000000     0.310165000000    -2.21419    
O4       O      0.450600000000     0.406700000000     0.439835000000    -2.21419    
O4       O      0.450600000000     0.093300000000     0.689835000000    -2.21419    
O4       O      0.549400000000     0.593300000000     0.560165000000    -2.21419    
O4       O      0.549400000000     0.906700000000     0.810165000000    -2.21419    
O4       O      0.450600000000     0.406700000000     0.939835000000    -2.21419    
O5       O      0.782760000000     0.113340000000     0.199710000000    -1.16358    
O5       O      0.217240000000     0.613340000000     0.050290000000    -1.16358    
O5       O      0.217240000000     0.886660000000     0.300290000000    -1.16358    
O5       O      0.782760000000     0.386660000000     0.449710000000    -1.16358    
O5       O      0.782760000000     0.113340000000     0.699710000000    -1.16358    
O5       O      0.217240000000     0.613340000000     0.550290000000    -1.16358    
O5       O      0.217240000000     0.886660000000     0.800290000000    -1.16358    
O5       O      0.782760000000     0.386660000000     0.949710000000    -1.16358    
C1       C      0.429770000000     0.346990000000     0.066910000000    -1.30622    
C1       C      0.570230000000     0.846990000000     0.183090000000    -1.30622    
C1       C      0.570230000000     0.653010000000     0.433090000000    -1.30622    
C1       C      0.429770000000     0.153010000000     0.316910000000    -1.30622    
C1       C      0.429770000000     0.346990000000     0.566910000000    -1.30622    
C1       C      0.570230000000     0.846990000000     0.683090000000    -1.30622    
C1       C      0.570230000000     0.653010000000     0.933090000000    -1.30622    
C1       C      0.429770000000     0.153010000000     0.816910000000    -1.30622    
C2       C      0.554440000000     0.264960000000     0.111015000000    -1.52235    
C2       C      0.445560000000     0.764960000000     0.138985000000    -1.52235    
C2       C      0.445560000000     0.735040000000     0.388985000000    -1.52235    
C2       C      0.554440000000     0.235040000000     0.361015000000    -1.52235    
C2       C      0.554440000000     0.264960000000     0.611015000000    -1.52235    
C2       C      0.445560000000     0.764960000000     0.638985000000    -1.52235    
C2       C      0.445560000000     0.735040000000     0.888985000000    -1.52235    
C2       C      0.554440000000     0.235040000000     0.861015000000    -1.52235    
C3       C      0.455780000000     0.227920000000     0.136905000000    -1.37181    
C3       C      0.544220000000     0.727920000000     0.113095000000    -1.37181    
C3       C      0.544220000000     0.772080000000     0.363095000000    -1.37181    
C3       C      0.455780000000     0.272080000000     0.386905000000    -1.37181    
C3       C      0.455780000000     0.227920000000     0.636905000000    -1.37181    
C3       C      0.544220000000     0.727920000000     0.613095000000    -1.37181    
C3       C      0.544220000000     0.772080000000     0.863095000000    -1.37181    
C3       C      0.455780000000     0.272080000000     0.886905000000    -1.37181    
C4       C      0.578690000000     0.140990000000     0.180200000000     0.788881   
C4       C      0.421310000000     0.640990000000     0.069800000000     0.788881   
C4       C      0.421310000000     0.859010000000     0.319800000000     0.788881   
C4       C      0.578690000000     0.359010000000     0.430200000000     0.788881   
C4       C      0.578690000000     0.140990000000     0.680200000000     0.788881   
C4       C      0.421310000000     0.640990000000     0.569800000000     0.788881   
C4       C      0.421310000000     0.859010000000     0.819800000000     0.788881   
C4       C      0.578690000000     0.359010000000     0.930200000000     0.788881   
H2       H      0.729680000000     0.232170000000     0.121530000000    -0.132118   
H2       H      0.270320000000     0.732170000000     0.128470000000    -0.132118   
H2       H      0.270320000000     0.767830000000     0.378470000000    -0.132118   
H2       H      0.729680000000     0.267830000000     0.371530000000    -0.132118   
H2       H      0.729680000000     0.232170000000     0.621530000000    -0.132118   
H2       H      0.270320000000     0.732170000000     0.628470000000    -0.132118   
H2       H      0.270320000000     0.767830000000     0.878470000000    -0.132118   
H2       H      0.729680000000     0.267830000000     0.871530000000    -0.132118   
H3       H      0.277720000000     0.257870000000     0.125810000000    -0.355554   
H3       H      0.722280000000     0.757870000000     0.124190000000    -0.355554   
H3       H      0.722280000000     0.742130000000     0.374190000000    -0.355554   
H3       H      0.277720000000     0.242130000000     0.375810000000    -0.355554   
H3       H      0.277720000000     0.257870000000     0.625810000000    -0.355554   
H3       H      0.722280000000     0.757870000000     0.624190000000    -0.355554   
H3       H      0.722280000000     0.742130000000     0.874190000000    -0.355554   
H3       H      0.277720000000     0.242130000000     0.875810000000    -0.355554   
H1       H      0.077050000000     0.474420000000     0.434670000000     1.23794    
H1       H      0.922950000000     0.974420000000     0.315330000000     1.23794    
H1       H      0.922950000000     0.525580000000     0.065330000000     1.23794    
H1       H      0.077050000000     0.025580000000     0.184670000000     1.23794    
H1       H      0.077050000000     0.474420000000     0.934670000000     1.23794    
H1       H      0.922950000000     0.974420000000     0.815330000000     1.23794    
H1       H      0.922950000000     0.525580000000     0.565330000000     1.23794    
H1       H      0.077050000000     0.025580000000     0.684670000000     1.23794    


